<routes>
<vType id="Human" color="red" guiShape="passenger/sedan"/>
<vType id="AV" color="yellow"/>
<route id="0_0_0" edges="
E0 E1 E2
" />
<route id="0_0_1" edges="
E0 E3 E4 E5 E2
" />
</routes>
