<additional>
<inductionLoop id="E0_det" lane="E0_0" pos="-5" file="NUL" friendlyPos="True"/>
<inductionLoop id="E1_det" lane="E1_0" pos="-5" file="NUL" friendlyPos="True"/>
<inductionLoop id="E2_det" lane="E2_0" pos="-5" file="NUL" friendlyPos="True"/>
<inductionLoop id="E3_det" lane="E3_0" pos="-5" file="NUL" friendlyPos="True"/>
<inductionLoop id="E4_det" lane="E4_0" pos="-5" file="NUL" friendlyPos="True"/>
<inductionLoop id="E5_det" lane="E5_0" pos="-5" file="NUL" friendlyPos="True"/>
</additional>
