<routes>
<vType id="Human" color="orange" guiShape="passenger/sedan"/>
<vType id="AV" />
<route id="0_0_0" color = "yellow" edges="
E0 E1 E2
" />
<route id="0_0_1" color = "red" edges="
E0 E3 E4 E5 E2
" />
</routes>
